6
Mode 6 Frame: * (null), Energy   -1000.0000000
C -1.328840 -1.572512 -0.012251
H -1.345602 -2.523660 0.477584
H -2.217766 -0.978721 -0.058313
H -0.423155 -1.215159 -0.456022
F -0.901026 -0.817147 1.469129
Cl -1.815325 -2.431478 -1.696818
6
Mode 6 Frame: * Frequency(6) -329.0200
C -1.280713 -1.486871 0.155131
H -1.359618 -2.549984 0.431041
H -2.233910 -1.001277 -0.106251
H -0.434973 -1.238295 -0.504921
F -0.916859 -0.845387 1.414002
Cl -1.821952 -2.443312 -1.719907
6
Mode 6 Frame: * Frequency(6) -329.0200
C -1.237802 -1.410510 0.304374
H -1.372116 -2.573455 0.389542
H -2.248305 -1.021388 -0.148994
H -0.445510 -1.258924 -0.548521
F -0.930977 -0.870567 1.364849
Cl -1.827860 -2.453863 -1.740495
6
Mode 6 Frame: * Frequency(6) -329.0200
C -1.204756 -1.351704 0.419306
H -1.381740 -2.591530 0.357583
H -2.259390 -1.036876 -0.181910
H -0.453624 -1.274810 -0.582098
F -0.941848 -0.889958 1.326996
Cl -1.832410 -2.461988 -1.756349
6
Mode 6 Frame: * Frequency(6) -329.0200
C -1.185157 -1.316827 0.487472
H -1.387448 -2.602250 0.338628
H -2.265965 -1.046062 -0.201433
H -0.458437 -1.284232 -0.602012
F -0.948297 -0.901459 1.304545
Cl -1.835109 -2.466808 -1.765752
6
Mode 6 Frame: * Frequency(6) -329.0200
C -1.181128 -1.309657 0.501485
H -1.388621 -2.604454 0.334732
H -2.267316 -1.047950 -0.205446
H -0.459426 -1.286169 -0.606106
F -0.949622 -0.903824 1.299930
Cl -1.835664 -2.467798 -1.767685
6
Mode 6 Frame: * Frequency(6) -329.0200
C -1.193105 -1.330971 0.459827
H -1.385133 -2.597903 0.346315
H -2.263299 -1.042337 -0.193516
H -0.456485 -1.280411 -0.593936
F -0.945682 -0.896795 1.313650
Cl -1.834015 -2.464853 -1.761939
6
Mode 6 Frame: * Frequency(6) -329.0200
C -1.219792 -1.378461 0.367012
H -1.377361 -2.583306 0.372124
H -2.254346 -1.029829 -0.166934
H -0.449932 -1.267582 -0.566821
F -0.936902 -0.881136 1.344219
Cl -1.830340 -2.458291 -1.749135
6
Mode 6 Frame: * Frequency(6) -329.0200
C -1.258296 -1.446978 0.233098
H -1.366147 -2.562246 0.409361
H -2.241430 -1.011783 -0.128581
H -0.440477 -1.249072 -0.527699
F -0.924234 -0.858542 1.388323
Cl -1.825038 -2.448824 -1.730663
6
Mode 6 Frame: * Frequency(6) -329.0200
C -1.304444 -1.529099 0.072597
H -1.352707 -2.537004 0.453991
H -2.225950 -0.990155 -0.082613
H -0.429146 -1.226887 -0.480810
F -0.909052 -0.831462 1.441184
Cl -1.818684 -2.437477 -1.708522
6
Mode 6 Frame: * Frequency(6) -329.0200
C -1.353236 -1.615925 -0.097099
H -1.338497 -2.510316 0.501177
H -2.209582 -0.967287 -0.034013
H -0.417164 -1.203431 -0.431234
F -0.893000 -0.802832 1.497074
Cl -1.811966 -2.425479 -1.685114
6
Mode 6 Frame: * Frequency(6) -329.0200
C -1.399384 -1.698046 -0.257600
H -1.325057 -2.485074 0.545807
H -2.194102 -0.945659 0.011955
H -0.405833 -1.181246 -0.384345
F -0.877818 -0.775752 1.549935
Cl -1.805612 -2.414132 -1.662973
6
Mode 6 Frame: * Frequency(6) -329.0200
C -1.437888 -1.766563 -0.391514
H -1.313843 -2.464014 0.583044
H -2.181186 -0.927613 0.050308
H -0.396378 -1.162736 -0.345223
F -0.865150 -0.753158 1.594039
Cl -1.800310 -2.404665 -1.644501
6
Mode 6 Frame: * Frequency(6) -329.0200
C -1.464575 -1.814053 -0.484329
H -1.306071 -2.449417 0.608853
H -2.172233 -0.915105 0.076890
H -0.389825 -1.149907 -0.318108
F -0.856370 -0.737499 1.624608
Cl -1.796635 -2.398103 -1.631697
6
Mode 6 Frame: * Frequency(6) -329.0200
C -1.476552 -1.835367 -0.525987
H -1.302583 -2.442866 0.620436
H -2.168216 -0.909492 0.088820
H -0.386884 -1.144149 -0.305938
F -0.852430 -0.730470 1.638328
Cl -1.794986 -2.395158 -1.625951
6
Mode 6 Frame: * Frequency(6) -329.0200
C -1.472523 -1.828197 -0.511974
H -1.303756 -2.445070 0.616540
H -2.169567 -0.911380 0.084807
H -0.387873 -1.146086 -0.310032
F -0.853755 -0.732835 1.633713
Cl -1.795541 -2.396148 -1.627884
6
Mode 6 Frame: * Frequency(6) -329.0200
C -1.452924 -1.793320 -0.443808
H -1.309464 -2.455790 0.597585
H -2.176142 -0.920566 0.065284
H -0.392686 -1.155508 -0.329946
F -0.860204 -0.744336 1.611262
Cl -1.798240 -2.400968 -1.637287
6
Mode 6 Frame: * Frequency(6) -329.0200
C -1.419878 -1.734514 -0.328876
H -1.319088 -2.473865 0.565626
H -2.187227 -0.936054 0.032368
H -0.400800 -1.171394 -0.363523
F -0.871075 -0.763727 1.573409
Cl -1.802790 -2.409093 -1.653141
6
Mode 6 Frame: * Frequency(6) -329.0200
C -1.376967 -1.658153 -0.179633
H -1.331586 -2.497336 0.524127
H -2.201622 -0.956165 -0.010375
H -0.411337 -1.192023 -0.407123
F -0.885193 -0.788907 1.524256
Cl -1.808698 -2.419644 -1.673729
6
Mode 6 Frame: * Frequency(6) -329.0200
C -1.328840 -1.572512 -0.012251
H -1.345602 -2.523660 0.477584
H -2.217766 -0.978721 -0.058313
H -0.423155 -1.215159 -0.456022
F -0.901026 -0.817147 1.469129
Cl -1.815325 -2.431478 -1.696818
